tests/fuzzer/corpus_json/21_random_020.json
{
  "version": "1.0",
  "type": "input",
  "is_batch": false,
  "attributes": {},
  "data": {
    "node": [
      {
        "id": 0,
        "u_rated": 400.0
      },
      {
        "id": 1,
        "u_rated": 400.0
      },
      {
        "id": 2,
        "u_rated": 400.0
      },
      {
        "id": 3,
        "u_rated": 400.0
      },
      {
        "id": 4,
        "u_rated": 400.0
      },
      {
        "id": 5,
        "u_rated": 400.0
      },
      {
        "id": 6,
        "u_rated": 400.0
      },
      {
        "id": 7,
        "u_rated": 400.0
      },
      {
        "id": 8,
        "u_rated": 400.0
      },
      {
        "id": 9,
        "u_rated": 400.0
      },
      {
        "id": 10,
        "u_rated": 400.0
      },
      {
        "id": 11,
        "u_rated": 400.0
      },
      {
        "id": 12,
        "u_rated": 400.0
      }
    ],
    "source": [
      {
        "id": 13,
        "node": 0,
        "status": 1,
        "u_ref": 1.0271451739211979,
        "u_ref_angle": 0.0,
        "sk": 259901464.744228,
        "rx_ratio": 0.4524728473332394,
        "z01_ratio": 1.0
      }
    ],
    "line": [
      {
        "id": 14,
        "from_node": 0,
        "to_node": 1,
        "from_status": 1,
        "to_status": 1,
        "r1": 2.864703346246109,
        "x1": 0.8468904356278495,
        "c1": 4.1152306204095665e-07,
        "tan1": 0.0,
        "r0": 0.3,
        "x0": 0.3,
        "c0": 1e-09,
        "tan0": 0.0,
        "i_n": 993.8996326495563
      },
      {
        "id": 15,
        "from_node": 1,
        "to_node": 2,
        "from_status": 1,
        "to_status": 1,
        "r1": 0.5162389995558997,
        "x1": 1.5956957442464486,
        "c1": 9.500391079535002e-07,
        "tan1": 0.0,
        "r0": 0.3,
        "x0": 0.3,
        "c0": 1e-09,
        "tan0": 0.0,
        "i_n": 454.90674829380214
      },
      {
        "id": 16,
        "from_node": 2,
        "to_node": 3,
        "from_status": 1,
        "to_status": 1,
        "r1": 1.0432628616622148,
        "x1": 1.5845199162279648,
        "c1": 9.086358448961127e-07,
        "tan1": 0.0,
        "r0": 0.3,
        "x0": 0.3,
        "c0": 1e-09,
        "tan0": 0.0,
        "i_n": 342.2131223637891
      },
      {
        "id": 17,
        "from_node": 3,
        "to_node": 4,
        "from_status": 1,
        "to_status": 1,
        "r1": 2.136858965930502,
        "x1": 3.138419185498714,
        "c1": 8.055850702646647e-07,
        "tan1": 0.0,
        "r0": 0.3,
        "x0": 0.3,
        "c0": 1e-09,
        "tan0": 0.0,
        "i_n": 497.19244994881495
      },
      {
        "id": 18,
        "from_node": 4,
        "to_node": 5,
        "from_status": 1,
        "to_status": 1,
        "r1": 0.4073299171903466,
        "x1": 2.8660497159750156,
        "c1": 3.509715349835263e-08,
        "tan1": 0.0,
        "r0": 0.3,
        "x0": 0.3,
        "c0": 1e-09,
        "tan0": 0.0,
        "i_n": 103.57972303713814
      },
      {
        "id": 19,
        "from_node": 5,
        "to_node": 6,
        "from_status": 1,
        "to_status": 1,
        "r1": 0.9516877030366244,
        "x1": 3.4671911136966287,
        "c1": 2.8347242105799495e-07,
        "tan1": 0.0,
        "r0": 0.3,
        "x0": 0.3,
        "c0": 1e-09,
        "tan0": 0.0,
        "i_n": 693.3473119453715
      },
      {
        "id": 20,
        "from_node": 6,
        "to_node": 7,
        "from_status": 1,
        "to_status": 1,
        "r1": 0.816747234164068,
        "x1": 0.5884844402107503,
        "c1": 2.334472736383486e-08,
        "tan1": 0.0,
        "r0": 0.3,
        "x0": 0.3,
        "c0": 1e-09,
        "tan0": 0.0,
        "i_n": 708.7258745105569
      },
      {
        "id": 21,
        "from_node": 7,
        "to_node": 8,
        "from_status": 1,
        "to_status": 1,
        "r1": 4.295563207610167,
        "x1": 1.0983280678812823,
        "c1": 2.3756936979303123e-07,
        "tan1": 0.0,
        "r0": 0.3,
        "x0": 0.3,
        "c0": 1e-09,
        "tan0": 0.0,
        "i_n": 22.85028622357593
      },
      {
        "id": 22,
        "from_node": 8,
        "to_node": 9,
        "from_status": 1,
        "to_status": 1,
        "r1": 3.2242922342446705,
        "x1": 1.5037303894533993,
        "c1": 1.3687230419203698e-07,
        "tan1": 0.0,
        "r0": 0.3,
        "x0": 0.3,
        "c0": 1e-09,
        "tan0": 0.0,
        "i_n": 650.4048229940181
      },
      {
        "id": 23,
        "from_node": 9,
        "to_node": 10,
        "from_status": 1,
        "to_status": 1,
        "r1": 2.9986677587514095,
        "x1": 2.23694275716337,
        "c1": 1.5301328839682216e-07,
        "tan1": 0.0,
        "r0": 0.3,
        "x0": 0.3,
        "c0": 1e-09,
        "tan0": 0.0,
        "i_n": 642.2839559693975
      },
      {
        "id": 24,
        "from_node": 10,
        "to_node": 11,
        "from_status": 1,
        "to_status": 1,
        "r1": 2.7784465563597207,
        "x1": 2.164505092677851,
        "c1": 1.646715879870595e-07,
        "tan1": 0.0,
        "r0": 0.3,
        "x0": 0.3,
        "c0": 1e-09,
        "tan0": 0.0,
        "i_n": 929.5458778713582
      },
      {
        "id": 25,
        "from_node": 11,
        "to_node": 12,
        "from_status": 1,
        "to_status": 1,
        "r1": 4.31585278812925,
        "x1": 3.4490143926884294,
        "c1": 9.96002337185831e-07,
        "tan1": 0.0,
        "r0": 0.3,
        "x0": 0.3,
        "c0": 1e-09,
        "tan0": 0.0,
        "i_n": 584.5578737874639
      }
    ],
    "sym_load": [
      {
        "id": 26,
        "node": 1,
        "status": 1,
        "type": 0,
        "p_specified": 81360.91322852031,
        "q_specified": -8963.33954937931
      },
      {
        "id": 27,
        "node": 2,
        "status": 1,
        "type": 0,
        "p_specified": 98526.9698088259,
        "q_specified": 6789.650929122239
      },
      {
        "id": 28,
        "node": 3,
        "status": 1,
        "type": 1,
        "p_specified": -99600.03970560443,
        "q_specified": 3029.3245313102743
      },
      {
        "id": 29,
        "node": 4,
        "status": 1,
        "type": 2,
        "p_specified": -19580.84709564432,
        "q_specified": -851.9015415983613
      },
      {
        "id": 30,
        "node": 8,
        "status": 1,
        "type": 1,
        "p_specified": 11455.032726417397,
        "q_specified": -9746.543307140128
      },
      {
        "id": 31,
        "node": 9,
        "status": 1,
        "type": 0,
        "p_specified": -81347.48588088056,
        "q_specified": -4853.770041063947
      },
      {
        "id": 32,
        "node": 10,
        "status": 1,
        "type": 2,
        "p_specified": 56230.43224365852,
        "q_specified": 3272.8813654662736
      },
      {
        "id": 33,
        "node": 12,
        "status": 1,
        "type": 2,
        "p_specified": 1328.0417036699364,
        "q_specified": -9756.932086264667
      }
    ],
    "shunt": [
      {
        "id": 34,
        "node": 0,
        "status": 1,
        "g1": 6.665721740181761e-05,
        "b1": 5.459689939399276e-06,
        "g0": 0.0001,
        "b0": 0.0001
      }
    ]
  }
}